#Description: 1D Calcite dissolution problem

SIMULATION
  SIMULATION_TYPE SUBSURFACE
  PROCESS_MODELS
    SUBSURFACE_FLOW flow
      MODE RICHARDS
    /
    SUBSURFACE_TRANSPORT transport
      GLOBAL_IMPLICIT
    /
  /
END

SUBSURFACE

#=========================== regression =======================================
REGRESSION
  CELLS_PER_PROCESS 5
END

#=========================== chemistry ========================================
CHEMISTRY
  PRIMARY_SPECIES
    Tracer
  /
  OUTPUT
    TOTAL
    ALL
  /
END

#=========================== solver options ===================================
LINEAR_SOLVER FLOW
  SOLVER DIRECT
END

LINEAR_SOLVER TRANSPORT
  SOLVER DIRECT
END

#=========================== discretization ===================================
GRID
  TYPE structured
  NXYZ 100 1 1
  BOUNDS
    0.d0 0.d0 0.d0
    100.d0 1.d0 1.d0
  /
END

#=========================== fluid properties =================================
FLUID_PROPERTY
  DIFFUSION_COEFFICIENT 1.d-9
END

#=========================== material properties ==============================
MATERIAL_PROPERTY soil1
  ID 1
  POROSITY 0.25d0
  TORTUOSITY 1.d0
  PERMEABILITY
    PERM_ISO 1.d-12
  /
  SATURATION_FUNCTION default
END

MATERIAL_PROPERTY soil2
  ID 2
  POROSITY 0.25d0
  TORTUOSITY 1.d0
  PERMEABILITY
    PERM_ISO 5.d-13
  /
  CHARACTERISTIC_CURVES default
END

#=========================== characteristic curves ============================
CHARACTERISTIC_CURVES default
  DEFAULT
END

#=========================== output options ===================================
OUTPUT
  TIMES y 10. 20. 25. 30. 40.
  FORMAT TECPLOT POINT
  VELOCITY_AT_CENTER
END

#=========================== times ============================================
TIME
  FINAL_TIME 50.d0 y
  INITIAL_TIMESTEP_SIZE 1.d0 h
  MAXIMUM_TIMESTEP_SIZE 2.5d-1 y
END

#=========================== regions ==========================================
REGION all
  COORDINATES
    0.d0 0.d0 0.d0
    100.d0 1.d0 1.d0
  /
END

REGION west
  FACE west
  COORDINATES
    0.d0 0.d0 0.d0
    0.d0 1.d0 1.d0
  /
END

REGION east
  FACE east
  COORDINATES
    100.d0 0.d0 0.d0
    100.d0 1.d0 1.d0
  /
END

#=========================== flow conditions ==================================
FLOW_CONDITION initial
  TYPE
    PRESSURE dirichlet
  /
  PRESSURE 201325.d0
END

FLOW_CONDITION inlet
  TYPE
    PRESSURE dirichlet
  /
  PRESSURE 202736.76144d0
#  PRESSURE 202736.79
#  PRESSURE 301325.d0  ! 3.5416e1 m/y darcy
END

#=========================== transport conditions =============================
TRANSPORT_CONDITION initial
  TYPE zero_gradient
  CONSTRAINT_LIST
    0.d0 initial
  /
END

TRANSPORT_CONDITION inlet
  TYPE dirichlet_zero_gradient
  CONSTRAINT_LIST
    0.d0 inlet
  /
END

#=========================== constraints ======================================
CONSTRAINT initial
  CONCENTRATIONS
    Tracer 1.d-10  T
  /
END

CONSTRAINT inlet
  CONCENTRATIONS
    Tracer 1.d-3   T
  /
END

#=========================== condition couplers ===============================
# initial condition
INITIAL_CONDITION
  FLOW_CONDITION initial
  TRANSPORT_CONDITION initial
  REGION all
END

BOUNDARY_CONDITION outlet
  FLOW_CONDITION initial
  TRANSPORT_CONDITION initial
  REGION east
END

BOUNDARY_CONDITION inlet
  FLOW_CONDITION inlet
  TRANSPORT_CONDITION inlet
  REGION west
END

#=========================== stratigraphy couplers ============================
STRATA
  REGION all
  MATERIAL soil1
  START_TIME 0.d0 y
  FINAL_TIME 25.d0 y
END

STRATA
  REGION all
  MATERIAL soil2
  START_TIME 25.d0 y
  FINAL_TIME 50.d0 y
END

END_SUBSURFACE
