#Description: QA test

SIMULATION
  SIMULATION_TYPE SUBSURFACE
  PROCESS_MODELS
    SUBSURFACE_FLOW flow
      MODE GENERAL
    /
  /
  #INPUT_RECORD_FILE
END

SUBSURFACE

#=========================== discretization ===================================
GRID
  TYPE structured
  NXYZ 10 1 1
  DXYZ
   10
   10
   10
  END
END

#=========================== regions ==========================================
REGION left
  COORDINATES
    0.d0   0.d0   0.d0
    40.d0  10.d0  10.d0
  /
END

REGION right
  COORDINATES
    40.d0   0.d0   0.d0
    100.d0  10.d0  10.d0
  /
END

REGION left_face
  FACE WEST
  COORDINATES
    0.d0  0.d0   0.d0
    0.d0  10.d0  10.d0
  /
END

REGION right_face
  FACE EAST
  COORDINATES
    100.d0  0.d0   0.d0
    100.d0  10.d0  10.d0
  /
END

#=========================== material properties ==============================
MATERIAL_PROPERTY beam_left
  ID 1
  POROSITY 0.01d0
  TORTUOSITY 1.d0
  ROCK_DENSITY 2.8E3
  HEAT_CAPACITY 1.d-3
  THERMAL_CONDUCTIVITY_DRY 100 W/m-C
  THERMAL_CONDUCTIVITY_WET 100 W/m-C
  CHARACTERISTIC_CURVES cc1
  PERMEABILITY
    PERM_X 1.d-20
    PERM_Y 1.d-20
    PERM_Z 1.d-20
  /
END

MATERIAL_PROPERTY beam_right
  ID 2
  POROSITY 0.01d0
  TORTUOSITY 1.d0
  ROCK_DENSITY 2.8E3
  HEAT_CAPACITY 1.d-3
  THERMAL_CONDUCTIVITY_DRY 300 W/m-C
  THERMAL_CONDUCTIVITY_WET 300 W/m-C
  CHARACTERISTIC_CURVES cc1
  PERMEABILITY
    PERM_X 1.d-20
    PERM_Y 1.d-20
    PERM_Z 1.d-20
  /
END

#=========================== characteristic curves ============================
CHARACTERISTIC_CURVES cc1
  SATURATION_FUNCTION VAN_GENUCHTEN
    LIQUID_RESIDUAL_SATURATION 0.5d-1
    M 0.75
    ALPHA 1.d-3
  /
  PERMEABILITY_FUNCTION MUALEM
    LIQUID_RESIDUAL_SATURATION 0.1d0
    M 0.5d0
  /
  PERMEABILITY_FUNCTION MUALEM_VG_GAS
    LIQUID_RESIDUAL_SATURATION 0.1d0
    GAS_RESIDUAL_SATURATION 0.1d0
    M 0.5d0
  /
END

#===================== stratigraphy couplers ==================================
STRATA
  REGION left
  MATERIAL beam_left
END

STRATA
  REGION right
  MATERIAL beam_right
END

#=========================== fluid properties =================================
FLUID_PROPERTY
  DIFFUSION_COEFFICIENT 1.d-9
END

#=========================== output options ===================================
OUTPUT
  SNAPSHOT_FILE
    TIMES yr 100
    NO_PRINT_INITIAL
    FORMAT VTK
  /
END

#=========================== times ============================================
TIME
  FINAL_TIME 100 yr
  INITIAL_TIMESTEP_SIZE 1.d-4 day
  MAXIMUM_TIMESTEP_SIZE 5.d0 yr at 0.d0 yr
END

#======================= flow conditions ======================================
FLOW_CONDITION initial
  TYPE
    TEMPERATURE dirichlet
    LIQUID_PRESSURE dirichlet
    MOLE_FRACTION dirichlet
  /
  TEMPERATURE 1.0d0 C
  LIQUID_PRESSURE 101325 Pa
  MOLE_FRACTION 1.d-10
END

FLOW_CONDITION left_face
  TYPE
    TEMPERATURE dirichlet
    LIQUID_FLUX neumann
    GAS_FLUX neumann
  /
  TEMPERATURE 1.d0 C
  LIQUID_FLUX 0.d0 m/yr
  GAS_FLUX 0.d0 m/yr
END

FLOW_CONDITION right_face
  TYPE
    ENERGY_FLUX neumann
    LIQUID_FLUX neumann
    GAS_FLUX neumann
  /
  ENERGY_FLUX +1.5d0 W/m^2
  LIQUID_FLUX 0.d0 m/yr
  GAS_FLUX 0.d0 m/yr
END

#========================== initial and boundary conditions ===================
# initial condition
INITIAL_CONDITION initial_left
  REGION left
  FLOW_CONDITION initial
END
INITIAL_CONDITION initial_right
  REGION right
  FLOW_CONDITION initial
END

# west boundary condition
BOUNDARY_CONDITION left_face
  REGION left_face
  FLOW_CONDITION left_face
END

# east boundary condition
BOUNDARY_CONDITION right_face
  FLOW_CONDITION right_face
  REGION right_face
END


END_SUBSURFACE

