# 0D batch reactor
# sphere of radius 1m inside a cube of side 1m
# Multiple continuum test
# Satish Karra
# 02/15/2014
#--------------------------------------------------------------------

SIMULATION
  SIMULATION_TYPE SUBSURFACE
  PROCESS_MODELS
    SUBSURFACE_FLOW flow
      MODE TH
      OPTIONS
        MAX_PRESSURE_CHANGE 1.e5
        MAX_TEMPERATURE_CHANGE 5.
      /
    /
  /
END

SUBSURFACE


MULTIPLE_CONTINUUM

#=========================== regression ===================================
REGRESSION
  CELLS
    1
  /
  CELLS_PER_PROCESS 5
END

#=========================== discretization ===================================
GRID
TYPE structured
ORIGIN 0.d0 0.d0 0.d0
NXYZ 1 1 1
BOUNDS
  0.d0 0.d0 0.d0
  1.d0 1.d0 1.d0
/
END

#=========================== solver options ===================================
TIMESTEPPER FLOW
  TS_ACCELERATION 5
/

NEWTON_SOLVER FLOW
  ATOL 1D-8
  RTOL 1D-8
  STOL 1D-30
  DTOL 1D15
  ITOL 1D-8
  MAXIT 25
  MAXF 100
END

#=========================== times ============================================
TIME
FINAL_TIME 100.d0 y
INITIAL_TIMESTEP_SIZE 1.d-8 y
MAXIMUM_TIMESTEP_SIZE 0.1d0 y
/

#=========================== output options ===================================
OUTPUT
  TIMES y 0.005 0.01 0.02 0.03 0.04 0.05 0.06 0.07 0.08 0.09 0.1 \
  0.25 0.5 0.75 1.0 2.5 5. 7.5 10. \
  15. 20. 25. 30. 35. 40. 45. 50. 55. 60. 65. 70. 75. 80. 85. 90. 95. 100.
  ! 125. 150. 175. 200.
  PERIODIC_OBSERVATION TIMESTEP 1
  SCREEN PERIODIC 10
  PRINT_COLUMN_IDS
  #FORMAT TECPLOT POINT
  #FORMAT HDF5
/

#=========================== fluid properties =================================
FLUID_PROPERTY
DIFFUSION_COEFFICIENT 1.d-9
/

#=========================== material properties ==============================
MATERIAL_PROPERTY rock1
ID 1
POROSITY 1.d-4
ROCK_DENSITY 2.65E3
SPECIFIC_HEAT 1E3
THERMAL_CONDUCTIVITY_DRY 2.51
THERMAL_CONDUCTIVITY_WET 2.51
SATURATION_FUNCTION sf2
PERMEABILITY
PERM_X 1.d-13
PERM_Y 1.d-13
PERM_Z 1.d-13
/
SECONDARY_CONTINUUM
  TYPE NESTED_SPHERES
  #LOG_GRID_SPACING
  RADIUS                1.d0
  NUM_CELLS             10
  OUTER_SPACING         5.d-4
  EPSILON               0.5
  TEMPERATURE           50.d0
  POROSITY              1.d0
/
END

#=========================== saturation functions =============================

SATURATION_FUNCTION sf2
  PERMEABILITY_FUNCTION_TYPE MUALEM
  SATURATION_FUNCTION_TYPE VAN_GENUCHTEN
  RESIDUAL_SATURATION 0.1
  LAMBDA 0.444
  ALPHA 2.4d-4
  MAX_CAPILLARY_PRESSURE 1.d6
/

#=========================== regions ==========================================

REGION all
COORDINATES
  0.d0 0.d0 0.d0
  1.d0 1.d0 1.d0
/
END



REGION obs
COORDINATES
  0.5d0 0.5d0 0.5d0
  0.5d0 0.5d0 0.5d0
/
END


OBSERVATION
  REGION obs
  AT_CELL_CENTER
  SECONDARY_TEMPERATURE
END



#=========================== flow conditions ==================================
FLOW_CONDITION initial
  UNITS Pa,C,M,yr
  TYPE
    PRESSURE dirichlet
    TEMPERATURE dirichlet
  /
  IPHASE 1
  PRESSURE 1.01325d5
  TEMPERATURE 100.d0
/


#=========================== condition couplers ===============================
# initial condition
INITIAL_CONDITION
  FLOW_CONDITION initial
  REGION all
END


#=========================== stratigraphy couplers ============================
STRATA
  REGION all
  MATERIAL rock1
END



END_SUBSURFACE
