! 9.6 Test Case #6-a. Gas Generation.
! BF = BRAGFLO
! For more descriptions of the problem please read case_6-a.docx
!=========================== flow mode ========================================

SIMULATION
  SIMULATION_TYPE SUBSURFACE
  PROCESS_MODELS
    SUBSURFACE_FLOW flow
      MODE GENERAL
      OPTIONS
        ITOL_RELATIVE_UPDATE 1.d-30  ! Turn off ITOL_RELATIVE_UPDATE criteria
        ISOTHERMAL                        ! BF is fundamentally isothermal
        TWO_PHASE_ENERGY_DOF TEMPERATURE  ! isothermal ignores this but needs to be specified
        GAS_COMPONENT_FORMULA_WEIGHT 2.01588D0 ! hydrogen gas that BF uses (kg/kmol)
        MAXIMUM_PRESSURE_CHANGE 5.0D5          ! PRESNORM in BF
	TOUGH2_ITOL_SCALED_RESIDUAL 1.d-5
      /
    /
    #WIPP_SOURCE_SINK
    #/
  /
END

SUBSURFACE

REGRESSION
  CELLS_PER_PROCESS 10
  CELLS
    89
    111
    113
    133
  /
END

!=========================== discretization ===================================
GRID
  TYPE structured
  NXYZ 10 1 20      
  DXYZ
    1.d0
    1.d0            
    1.d0            
  /
/

!=========================== solver options ===================================
NEWTON_SOLVER FLOW
  RTOL 1.d-30       ! Turn off RTOL criteria
  ATOL 1.d-30       ! Turn off ATOL criteria
  STOL 1.d-30       ! Turn off STOL criteria
  MAXIT 20          ! Maximum newton iteration number
/

LINEAR_SOLVER FLOW  !default convergence criteria by PFLOTRAN
  SOLVER DIRECT
/

!=========================== fluid properties =================================
! BF is fundamentally immiscible and PFLOTRAN is miscible. We currently do not
! have an option to change PFLOTRAN to miscible mode.
FLUID_PROPERTY
  PHASE LIQUID
  DIFFUSION_COEFFICIENT 0.d-0  ! no diffusion as BF runs on immiscible flow
END

FLUID_PROPERTY
  PHASE GAS
  DIFFUSION_COEFFICIENT 0.d-0  ! no diffusion as BF runs on immiscible flow
END

EOS WATER
  DENSITY EXPONENTIAL 996.629 101320.d0 4.45d-10  ! DEN_BR in BF
  ! REFERENCE TEMPERATURE AND PRESSURE FOR DENSITY CALCULATIONS in BF
  VISCOSITY CONSTANT 8.5077d-4  ! VISC_BR in BF
  ENTHALPY CONSTANT 1.8890d6    ! default water enthalpy constant. isothermal ignores this.
/

EOS GAS
  VISCOSITY CONSTANT 9.0829d-6  ! VISC_GAS in BF
/

!=========================== material properties ==============================
MATERIAL_PROPERTY soil
  ID 1
  CHARACTERISTIC_CURVES SF1
  POROSITY 0.45             ! POROSITY in BF
  TORTUOSITY 1.             ! always 1 in BF
  ROCK_DENSITY 2650.d0      ! thermal parameter. isothermal ignores this.
  THERMAL_CONDUCTIVITY_DRY 0.5   ! thermal parameter. isothermal ignores this.
  THERMAL_CONDUCTIVITY_WET 2.    ! thermal parameter. isothermal ignores this.
  HEAT_CAPACITY 830.             ! thermal parameter. isothermal ignores this.
  SOIL_COMPRESSIBILITY_FUNCTION BRAGFLO  !Function used in BF
  BULK_COMPRESSIBILITY 1.d-8     ! COMPRES in BF
  SOIL_REFERENCE_PRESSURE 4e6 ! 101320.d0 ! REFERENCE TEMPERATURE AND PRESSURE FOR DENSITY CALCULATIONS in BF
  PERMEABILITY
    PERM_ISO 1.d-17         ! PERMX, PERMY, PERMZ in BF. use PERM_ISO when uniform.
                            ! otherwise use PERM_X, PERM_Y, PERM_Z in PFLOTRAN
  /
/

!=========================== saturation functions =============================
CHARACTERISTIC_CURVES SF1
  SATURATION_FUNCTION BROOKS_COREY  !KRP = 4 in BF
    SMOOTH              !required for convergence
    LAMBDA 0.7D0        !LAMBDA in BF
    ALPHA  1.20482D-5     !ALPHA = 1/(PCT_A*PERMX**PCT_EXP) for KRP = 4 in BF
    LIQUID_RESIDUAL_SATURATION 0.2D0  !SOR = 0.2
    MAX_CAPILLARY_PRESSURE 1.D8       !PCMAX = 1.0E+08
  /
  PERMEABILITY_FUNCTION BURDINE
    LAMBDA 0.7D0                      !LAMBDA in BF
    LIQUID_RESIDUAL_SATURATION 0.2D0  !SOR = 0.2
  /
  PERMEABILITY_FUNCTION BURDINE_BC_GAS
    LAMBDA 0.7D0                      !LAMBDA in BF
    LIQUID_RESIDUAL_SATURATION 0.2D0  !SOR = 0.2 in BF
    GAS_RESIDUAL_SATURATION    1.D-5  !SGR = 0.00001 in BF
  /
END

!=========================== output options ===================================

OUTPUT
  TIMES s 1.d6 1.d7 1.d8 1.d9 5.d9   ! USER REQUESTED PRINTOUT TIMES
  FORMAT VTK
  VARIABLES
    LIQUID_PRESSURE
    GAS_PRESSURE
    GAS_SATURATION
  /
/

!=========================== times ============================================
TIME
  FINAL_TIME 5.d9 s ! TMAX
  INITIAL_TIMESTEP_SIZE 1.d0 s    ! DT_INIT in BF: BF units are all in seconds
  MAXIMUM_TIMESTEP_SIZE 1000.d0 s  ! DT_MAX in BF: BF units are all in seconds
  MAXIMUM_TIMESTEP_SIZE 1.d9 s at 5000 s   ! DT_MAX in BF: BF units are all in seconds
/

!=========================== regions ==========================================
REGION all
  COORDINATES
    0.d0  0.d0 0.d0
    10.d0 1.d0 20.d0
  /
/

REGION top
  FACE top
  COORDINATES
    0.d0  0.d0 20.d0
    10.d0 1.d0 20.d0
  /
/


!=========================== flow conditions ==================================

FLOW_CONDITION 1
  TYPE
    GAS_PRESSURE dirichlet  ! later defines these as initial conditions below
    LIQUID_SATURATION dirichlet
    TEMPERATURE dirichlet
  /
  GAS_PRESSURE 4.08320E+06
  LIQUID_SATURATION 9.999900e-01
  TEMPERATURE 25.d0  !isothermal ignores this
END


!=========================== condition couplers ===============================

INITIAL_CONDITION
  FLOW_CONDITION 1
  REGION all
END



SOURCE_SINK_SANDBOX
  WIPP-GAS_GENERATION
    COORDINATE 0.25d0 0.5d0 10.5d0
    INUNDATED_CORROSION_RATE 3d-7  ! RATE CONSTANTS: CORROSION (RKCOR) in BF
    INUNDATED_DEGRADATION_RATE 1.5d-6  ! BIODEGRADATION (RKBIO) in BF
    HUMID_CORROSION_FACTOR 1.0d-3  ! HUMIDITY FACTORS: HUMFAC_COR
    HUMID_DEGRADATION_FACTOR 0.2d0  ! HUMFAC_BIO
    H2_FE_RATIO 1.3081d0  ! S_H2
    H2_CH2O_RATIO 1.1100d0  ! RATE COEFFICIENTS: RXH2S
    ALPHARXN -1.d3
    SOCMIN 1.5d-2
    SATWICK 0.25
  /
/

!=========================== stratigraphy couplers ============================
STRATA
  MATERIAL soil
  REGION all
/

END_SUBSURFACE
