#Description: 1D geochemical transport with ion exchange based on Valocchi's
#             work.

SIMULATION
  SIMULATION_TYPE SUBSURFACE
  PROCESS_MODELS
    SUBSURFACE_TRANSPORT transport
      GLOBAL_IMPLICIT
    /
  /
END

SUBSURFACE

#=========================== regression =======================================
REGRESSION
#  CELLS_PER_PROCESS 5
  CELLS
    1
    20
    25
    30
    35
    40
    45
    50
    55
    60
    65
    70
    75
    80
    100
  /
END

#=========================== flow mode ========================================
# Uniform velocity (see below). No flow mode specified.

#=========================== useful tranport parameters ==================
UNIFORM_VELOCITY 1.d0 0.d0 0.d0 m/yr

#=========================== chemistry ========================================
CHEMISTRY
  PRIMARY_SPECIES
    Na+
    Ca++
    Mg++
    Cl-
  /
  MINERALS
    Halite
  /
  MINERAL_KINETICS
    Halite
      RATE_CONSTANT 1.d-40
    /
  /
  SORPTION
    ION_EXCHANGE_RXN
      MINERAL Halite
      CEC 750. eq/m^3
      CATIONS
        Ca++  3.38638672536d0 ! big K = 1.84
        Na+   1.d0 REFERENCE
        Mg++  6.00240096038d0 ! big K = 2.45
      /
    /
  /
  DATABASE ../../../database/hanford.dat
  LOG_FORMULATION
  OUTPUT
    all
    TOTAL
    TOTAL_SORBED
  /
END

#=========================== solver options ===================================
LINEAR_SOLVER TRANSPORT
  SOLVER DIRECT
END

#=========================== discretization ===================================
GRID
  TYPE structured
  NXYZ 100 1 1
  BOUNDS
    0.d0 0.d0 0.d0
    100.d0 1.d0 1.d0
  /
END

#=========================== fluid properties =================================
FLUID_PROPERTY
  DIFFUSION_COEFFICIENT 1.d-9
END

#=========================== material properties ==============================
MATERIAL_PROPERTY soil1
  ID 1
  POROSITY 0.25d0
  TORTUOSITY 1.d0
END

#=========================== output options ===================================
OUTPUT
#  TIMES y 5. 10. 15. 20.
  FORMAT TECPLOT POINT
END

#=========================== times ============================================
TIME
#  FINAL_TIME 25.d0 y
  FINAL_TIME 12.5d0 y            ! tracer at 50m midpoint
  INITIAL_TIMESTEP_SIZE 1.d0 h
  MAXIMUM_TIMESTEP_SIZE 2.5d-1 y
END

#=========================== regions ==========================================
REGION all
  COORDINATES
    0.d0 0.d0 0.d0
    100.d0 1.d0 1.d0
  /
END

REGION west
  FACE west
  COORDINATES
    0.d0 0.d0 0.d0
    0.d0 1.d0 1.d0
  /
END

REGION east
  FACE east
  COORDINATES
    100.d0 0.d0 0.d0
    100.d0 1.d0 1.d0
  /
END

#=========================== transport conditions =============================
TRANSPORT_CONDITION initial
  TYPE zero_gradient
  CONSTRAINT_LIST
    0.d0 initial
  /
END

TRANSPORT_CONDITION inlet
  TYPE dirichlet_zero_gradient
  CONSTRAINT_LIST
    0.d0 inlet
  /
END

#=========================== constraints ======================================
CONSTRAINT initial
  CONCENTRATIONS
#    Na+     0.2465  S
#    Ca++    0.1602  S
#    Mg++    0.1641  S
    Na+     8.65d-2 T
    Ca++    1.82d-2 T
    Mg++    1.11d-2 T
    Cl-     2.d-3   Z
  /
  MINERALS
    Halite 1.d-5 1.d0
  /
END

CONSTRAINT inlet
  CONCENTRATIONS
    Na+     9.4d-3  T
    Ca++    5.d-4   T
    Mg++    2.13d-3 T
    Cl-     1.d-2  Z
  /
END

#=========================== condition couplers ===============================
# initial condition
INITIAL_CONDITION
  TRANSPORT_CONDITION initial
  REGION all
END

BOUNDARY_CONDITION outlet
  TRANSPORT_CONDITION initial
  REGION east
END

BOUNDARY_CONDITION inlet
  TRANSPORT_CONDITION inlet
  REGION west
END

#=========================== stratigraphy couplers ============================
STRATA
  REGION all
  MATERIAL soil1
END


END_SUBSURFACE
