#Description: 1D Calcite dissolution problem

SIMULATION
  SIMULATION_TYPE SUBSURFACE
  PROCESS_MODELS
    SUBSURFACE_FLOW flow
      MODE RICHARDS
    /
    SUBSURFACE_TRANSPORT transport
      GLOBAL_IMPLICIT
    /
  /
END

SUBSURFACE

#=========================== regression =======================================
REGRESSION
  CELLS_PER_PROCESS 5
END

#=========================== flow mode ========================================

#=========================== chemistry ========================================
CHEMISTRY
  PRIMARY_SPECIES
    H+
    HCO3-
    Ca++
  /
  SECONDARY_SPECIES
    OH-
    CO3--
    CO2(aq)
    CaCO3(aq)
    CaHCO3+
    CaOH+
  /
  GAS_SPECIES
    CO2(g)
  /
  MINERALS
    Calcite
  /
  MINERAL_KINETICS
    Calcite
      RATE_CONSTANT 1.d-6
    /
  /
  DATABASE ../../../../database/hanford.dat
  LOG_FORMULATION
#  OPERATOR_SPLITTING
  ACTIVITY_COEFFICIENTS TIMESTEP
  OUTPUT
    PH
    all
    TOTAL
  /
END

#=========================== solver options ===================================
LINEAR_SOLVER FLOW
  SOLVER DIRECT
END

LINEAR_SOLVER TRANSPORT
  SOLVER DIRECT
END

#=========================== discretization ===================================
GRID
  TYPE structured
  NXYZ 1 1 100
  BOUNDS
    0.d0 0.d0 0.d0
    1.d0 1.d0 10.d0
  /
END

#=========================== fluid properties =================================
FLUID_PROPERTY
  DIFFUSION_COEFFICIENT 1.d-9
END

#=========================== material properties ==============================
MATERIAL_PROPERTY soil1
  ID 1
  POROSITY 0.25d0
  TORTUOSITY 1.d0
  SOIL_COMPRESSIBILITY_FUNCTION LEIJNSE
  SOIL_COMPRESSIBILITY 1.d-7
  SOIL_REFERENCE_PRESSURE 1.d5
  PERMEABILITY
    PERM_ISO 1.d-12
  /
  CHARACTERISTIC_CURVES sf1
END

#=========================== characteristic curves ============================
CHARACTERISTIC_CURVES sf1
  SATURATION_FUNCTION VAN_GENUCHTEN
    M 0.5d0
    ALPHA  1.d-4
    LIQUID_RESIDUAL_SATURATION 0.1d0
    MAX_CAPILLARY_PRESSURE 1.d8
  /
  PERMEABILITY_FUNCTION MUALEM_VG_LIQ
    M 0.5d0
    LIQUID_RESIDUAL_SATURATION 0.1d0
  /
END

#=========================== output options ===================================
OUTPUT
#  TIMES y 5. 10. 15. 20.
#  FORMAT TECPLOT POINT
#  VELOCITY_AT_CENTER
  VARIABLES
    LIQUID_PRESSURE
    LIQUID_SATURATION
    POROSITY
    MINERAL_POROSITY
  /
END

#=========================== times ============================================
TIME
  FINAL_TIME 25.d0 y
  INITIAL_TIMESTEP_SIZE 1.d0 h
  MAXIMUM_TIMESTEP_SIZE 2.5d-1 y
END

#=========================== regions ==========================================
REGION all
  COORDINATES
    0.d0 0.d0 0.d0
    1.d0 1.d0 10.d0
  /
END

REGION top
  FACE top
  COORDINATES
    0.d0 0.d0 10.d0
    1.d0 1.d0 10.d0
  /
END

REGION bottom
  FACE bottom
  COORDINATES
    0.d0 0.d0 0.d0
    1.d0 1.d0 0.d0
  /
END

#=========================== flow conditions ==================================
FLOW_CONDITION initial
  TYPE
    PRESSURE hydrostatic
  /
  DATUM 0.d0 0.d0 1.d0
  PRESSURE 101325.d0
END

FLOW_CONDITION recharge
  TYPE
    FLUX neumann
  /
  FLUX 10 cm/y
END

#=========================== transport conditions =============================
TRANSPORT_CONDITION initial
  TYPE zero_gradient
  CONSTRAINT_LIST
    0.d0 initial
  /
END

TRANSPORT_CONDITION inlet
  TYPE dirichlet_zero_gradient
  CONSTRAINT_LIST
    0.d0 inlet
  /
END

#=========================== constraints ======================================
CONSTRAINT initial
  CONCENTRATIONS
    H+     1.d-8      F
    HCO3-  1.d-3      G  CO2(g)
    Ca++   5.d-4      M  Calcite
  /
  MINERALS
    Calcite 1.d-5 1.d0
  /
END

CONSTRAINT inlet
  CONCENTRATIONS
    H+     5.         P
    HCO3-  1.d-3      T
    Ca++   1.d-6      Z
  /
END

#=========================== condition couplers ===============================
# initial condition
INITIAL_CONDITION
  FLOW_CONDITION initial
  TRANSPORT_CONDITION initial
  REGION all
END

BOUNDARY_CONDITION outlet
  FLOW_CONDITION initial
  TRANSPORT_CONDITION initial
  REGION bottom
END

BOUNDARY_CONDITION inlet
  FLOW_CONDITION recharge
  TRANSPORT_CONDITION inlet
  REGION top
END

#=========================== stratigraphy couplers ============================
STRATA
  REGION all
  MATERIAL soil1
END


END_SUBSURFACE
