#Description: QA test

SIMULATION
  SIMULATION_TYPE SUBSURFACE
  PROCESS_MODELS
    SUBSURFACE_FLOW flow
      MODE TH
    /
  /
  #INPUT_RECORD_FILE
END

SUBSURFACE

#=========================== discretization ===================================
GRID
  TYPE structured
  NXYZ 10 10 10
  DXYZ
   0.1
   0.1
   0.1
  END
END

#=========================== regions ==========================================
REGION all
  COORDINATES
    0.d0  0.d0  0.d0
    1.d0  1.d0  1.d0
  /
END

REGION west_face
  FACE WEST
  COORDINATES
    0.d0  0.d0  0.d0
    0.d0  1.d0  1.d0
  /
END

REGION east_face
  FACE EAST
  COORDINATES
    1.d0  0.d0  0.d0
    1.d0  1.d0  1.d0
  /
END

REGION north_face
  FACE NORTH
  COORDINATES
    0.d0  1.d0  0.d0
    1.d0  1.d0  1.d0
  /
END

REGION south_face
  FACE SOUTH
  COORDINATES
    0.d0  0.d0  0.d0
    1.d0  0.d0  1.d0
  /
END

REGION bottom_face
  FACE BOTTOM
  COORDINATES
    0.d0  0.d0  0.d0
    1.d0  1.d0  0.d0
  /
END

REGION top_face
  FACE TOP
  COORDINATES
    0.d0  0.d0  1.d0
    1.d0  1.d0  1.d0
  /
END

#=========================== material properties ==============================
MATERIAL_PROPERTY cube
  ID 1
  POROSITY 0.01d0
  TORTUOSITY 1.d0
  ROCK_DENSITY 2.8E3
  SPECIFIC_HEAT 1.d-3
  THERMAL_CONDUCTIVITY_DRY 1 W/m-C
  THERMAL_CONDUCTIVITY_WET 1 W/m-C
  SATURATION_FUNCTION default
  PERMEABILITY
    PERM_X 1.d-14
    PERM_Y 1.d-14
    PERM_Z 1.d-14
  /
END

#=========================== characteristic curves ============================
SATURATION_FUNCTION default
  SATURATION_FUNCTION_TYPE VAN_GENUCHTEN
  RESIDUAL_SATURATION 0.5d-1
  LAMBDA 0.75
  ALPHA 1.d-3
END

#===================== stratigraphy couplers ==================================
STRATA
  REGION all
  MATERIAL cube
END

#=========================== output options ===================================
OUTPUT
  SNAPSHOT_FILE
    TIMES yr 10
    #PERIODIC TIME 1 yr
    NO_PRINT_INITIAL
    #FORMAT TECPLOT BLOCK
    FORMAT VTK
  /
END

#=========================== times ============================================
TIME
  FINAL_TIME 10 yr
  INITIAL_TIMESTEP_SIZE 1.d-4 day
  MAXIMUM_TIMESTEP_SIZE 0.10 yr at 0.d0 yr
END

#=========================== datasets =========================================
DATASET temperature_bc_west
  HDF5_DATASET_NAME node_centered_surf_west
  FILENAME dataset.h5
END

DATASET temperature_bc_east
  HDF5_DATASET_NAME node_centered_surf_east
  FILENAME dataset.h5
END

DATASET temperature_bc_north
  HDF5_DATASET_NAME node_centered_surf_north
  FILENAME dataset.h5
END

DATASET temperature_bc_south
  HDF5_DATASET_NAME node_centered_surf_south
  FILENAME dataset.h5
END

DATASET temperature_bc_bottom
  HDF5_DATASET_NAME node_centered_surf_bottom
  FILENAME dataset.h5
END

DATASET temperature_bc_top
  HDF5_DATASET_NAME node_centered_surf_top
  FILENAME dataset.h5
END

#======================= flow conditions ======================================
FLOW_CONDITION initial
  TYPE
    TEMPERATURE dirichlet
    PRESSURE dirichlet
  /
  TEMPERATURE 1.0d0 C
  PRESSURE 101325 Pa
END

FLOW_CONDITION west_face
  TYPE
    TEMPERATURE dirichlet
    PRESSURE dirichlet
  /
  TEMPERATURE DATASET temperature_bc_west
  PRESSURE 101325 Pa
END

FLOW_CONDITION east_face
  TYPE
    TEMPERATURE dirichlet
    PRESSURE dirichlet
  /
  TEMPERATURE DATASET temperature_bc_east
  PRESSURE 101325 Pa
END

FLOW_CONDITION north_face
  TYPE
    TEMPERATURE dirichlet
    PRESSURE dirichlet
  /
  TEMPERATURE DATASET temperature_bc_north
  PRESSURE 101325 Pa
END

FLOW_CONDITION south_face
  TYPE
    TEMPERATURE dirichlet
    PRESSURE dirichlet
  /
  TEMPERATURE DATASET temperature_bc_south
  PRESSURE 101325 Pa
END

FLOW_CONDITION bottom_face
  TYPE
    TEMPERATURE dirichlet
    PRESSURE dirichlet
  /
  TEMPERATURE DATASET temperature_bc_bottom
  PRESSURE 101325 Pa
END

FLOW_CONDITION top_face
  TYPE
    TEMPERATURE dirichlet
    PRESSURE dirichlet
  /
  TEMPERATURE DATASET temperature_bc_top
  PRESSURE 101325 Pa
END

#========================== initial and boundary conditions ===================
# initial condition
INITIAL_CONDITION initial
  REGION all
  FLOW_CONDITION initial
END

# west boundary condition
BOUNDARY_CONDITION west_face
  REGION west_face
  FLOW_CONDITION west_face
END

# east boundary condition
BOUNDARY_CONDITION east_face
  FLOW_CONDITION east_face
  REGION east_face
END

# north boundary condition
BOUNDARY_CONDITION north_face
  REGION north_face
  FLOW_CONDITION north_face
END

# south boundary condition
BOUNDARY_CONDITION south_face
  FLOW_CONDITION south_face
  REGION south_face
END

# bottom boundary condition
BOUNDARY_CONDITION bottom_face
  REGION bottom_face
  FLOW_CONDITION bottom_face
END

# top boundary condition
BOUNDARY_CONDITION top_face
  FLOW_CONDITION top_face
  REGION top_face
END


END_SUBSURFACE

